<?xml version="1.0" encoding="UTF-8"?>

<!-- generated on Fri Aug 25 12:31:10 2017 by SUMO duarouter Version 0.21.0
<?xml version="1.0" encoding="UTF-8"?>

<configuration xmlns:xsi="http://www.w3.org/2001/XMLSchema-instance" xsi:noNamespaceSchemaLocation="http://sumo-sim.org/xsd/duarouterConfiguration.xsd">

    <input>
        <net-file value="erlangen.net.xml"/>
        <additional-files value="type.add.xml"/>
        <trip-files value="trips.trips.xml"/>
    </input>

    <output>
        <output-file value="erlangen.rou.xml"/>
    </output>

    <processing>
        <ignore-errors value="true"/>
    </processing>

    <time>
        <begin value="0"/>
        <end value="500.0"/>
    </time>

    <report>
        <no-step-log value="true"/>
    </report>

</configuration>
-->

<routes xmlns:xsi="http://www.w3.org/2001/XMLSchema-instance" xsi:noNamespaceSchemaLocation="http://sumo-sim.org/xsd/routes_file.xsd">
    <vType id="hSlowCar" length="5.00" minGap="2.50" maxSpeed="25.00" probability="0.05" color="blue">
        <carFollowing-Krauss accel="2.60" decel="4.50" sigma="0.50"/>
    </vType>
    <vehicle id="0" type="hSlowCar" depart="0.00">
        <route edges="244823983 187017421#2 187017421#3 207580076#0 207580076#1 207580076#2 108043727#0 108043727#1 108043727#2 209183483#0 209183483#1 209183483#2 7917430#0 7917430#1 473810915#0 473810915#1 473810916 473810917 126471497#12 126471497#13 -8080869"/>
    </vehicle>
    <vehicle id="1" type="hSlowCar" depart="0.00">
        <route edges="159830150 7917432 7917431#3 128930534 128930536 -29205082#4 -29205082#3 -29205082#2 -29205082#1 -29205082#0 207728318#0 207728318#1 207728318#2 -207728318#2"/>
    </vehicle>
    <vehicle id="2" type="hSlowCar" depart="0.00">
        <route edges="18507860 147614652#0 147614652#1 -238770987#2 -238770987#1 -238770987#0 128943073 128942887#0"/>
    </vehicle>
    <vehicle id="3" type="hSlowCar" depart="0.00">
        <route edges="18498615#1 147614652#0 147614652#1 -238770987#2 -238770987#1 -238770987#0 209183484 119440078#0 119440078#1 119440078#2 119440078#3 119440078#4 174044127#0 174044127#1 143995130 207908670#3 207908670#4 207908670#5 237920408#0 237920408#1 237920408#2 237920407#0 237920407#1 385669582 207728319#0 207728319#1 207728319#2 207728319#3 207728319#4 207728319#5 207728319#6 128754993#0 128754993#1"/>
    </vehicle>
    <vehicle id="4" type="hSlowCar" depart="0.00">
        <route edges="250777278#6 -250777278#6 -207728319#8 -207728319#7 -207728319#6 -207728319#5 -207728319#4 -207728319#3 -207728319#2 -207728319#1 -207728319#0 -385669582 -237920407#1 -237920407#0 -237920408#2 -237920408#1 -237920408#0 -207908670#5 -207908670#4 -207908670#3 -207908670#2 -207908670#1 -207908670#0 -209183483#6 -209183483#5 -209183483#4 -209183483#3 -209183483#2 -209183483#1 -209183483#0 -157655114#4 -157655114#3 -157655114#2 -157655114#1 -157655114#0 -4324389#2 -4324389#1 -8080895 126471498#6 18535918#0 18535918#1 18535918#2 18535920#2 18535923#0 18535923#1 -18535923#1"/>
    </vehicle>
    <vehicle id="5" type="hSlowCar" depart="0.00">
        <route edges="4325634#2 4325634#3 4325634#4 130096030 130096034#0 130096034#1 130096034#2 130096034#3 130096034#4 -207728319#4 -207728319#3 -207728319#2 124327152 124327151#0 124327151#1 -124327151#1"/>
    </vehicle>
    <vehicle id="6" type="hSlowCar" depart="0.00">
        <route edges="-209183483#3 -209183483#2 -209183483#1 108255160 119440078#0 150882376 -33581450#0"/>
    </vehicle>
    <vehicle id="7" type="hSlowCar" depart="0.00">
        <route edges="150882376 -150882376 119440078#1 119440078#2 119440078#3 119440078#4 174044127#0 174044127#1 143995130 207908670#3 207908670#4 7917436 174044129#0 174044129#1 174044129#2 174044129#3 122320050 122317544 409089012#0 409089012#1 409089012#2 -130801488#4 -130801488#3 -130801488#2 373577568#0"/>
    </vehicle>
    <vehicle id="8" type="hSlowCar" depart="0.00">
        <route edges="-187017421#3 187017421#3 207580076#0 207580076#1 207580076#2 108043727#0 108043727#1 108043727#2 209183483#0 209183483#1 209183483#2 209183483#3 209183483#4 209183483#5 209183483#6 128930536 174044127#0 174044127#1 143995130 207908670#3 207908670#4 7917436 174044129#0 174044129#1 174044129#2 174044129#3 122320050 122317544 409089012#0 128925249 128925230"/>
    </vehicle>
    <vehicle id="9" type="hSlowCar" depart="0.00">
        <route edges="12182442 -237920407#1 -237920407#0 -237920408#2 -237920408#1 -237920408#0 -207908670#5 -207908670#4 -207908670#3 -207908670#2 -207908670#1 -207908670#0 128930536 -29205082#4 -29205082#3 -29205082#2 -29205082#1 -29205082#0 -207728321 -119438059#2 -119438059#1 -119438059#0 -33581450#2 -23892139 23892139"/>
    </vehicle>
    <vehicle id="10" type="hSlowCar" depart="0.00">
        <route edges="38771471#2 38771471#3 18502702#2 18502702#3 18502697#3 18502697#4 18502697#0 18502703#0 18502703#1 18502703#2 18502703#3 209183484 -108255160 209183483#1 209183483#2"/>
    </vehicle>
    <vehicle id="11" type="hSlowCar" depart="0.00">
        <route edges="157655114#1 -157655114#1 -157655114#0 -4324389#2 121700406 38771468#1 38771468#2 38771468#3 448960167#1 386959361#0 386959361#1 386959361#2 386959361#3 138233900 18502699#1 128942883 128942877#0 128942877#1 128942877#2 128942877#3 128942877#4 30837150"/>
    </vehicle>
    <vehicle id="12" type="hSlowCar" depart="0.00">
        <route edges="7653583#1 157655114#2 157655114#3 157655114#4 209183483#0 209183483#1 209183483#2 209183483#3 209183483#4 209183483#5 209183483#6 128930536 174044127#0 174044127#1 143995130 207908670#3 207908670#4 7917436 174044129#0 174044129#1 174044129#2 174044129#3 122320050 122317544 409089012#0 409089012#1 409089012#2 174044131#0 174044131#1 174044131#2 128931504#3"/>
    </vehicle>
    <vehicle id="13" type="hSlowCar" depart="0.00">
        <route edges="-7917431#2 -7917431#1 -7917431#0 126471497#6 126471497#7 126471497#8 126471497#9 126471497#10 126471497#11 126471497#12 126471497#13 126471497#14 126471497#15 473802585#0 473802585#1 473802585#2 473802585#3 473802585#4 473802585#5 473802585#6 473802584 126471498#0 126471498#1 126471498#2 126471498#3 126471498#4 126471498#5 126471498#6 126471498#7 473799031 473799033 138233901 448960166 448960167#0 448960167#1 386959361#0 386959361#1 386959361#2 386959361#3 138233900 18502699#1 128942883 128942877#0 23892138#0 23892138#1 -18507830#1 18507830#1"/>
    </vehicle>
    <vehicle id="14" type="hSlowCar" depart="0.00">
        <route edges="244823983 187017421#2 187017421#3 207580076#0 207580076#1 207580076#2 108043727#0 108043727#1 108043727#2 209183483#0 209183483#1 209183483#2 209183483#3 209183483#4 209183483#5 209183483#6 128930536 174044127#0 174044127#1 143995130 207908670#3 207908670#4 207908670#5 237920408#0 237920408#1 237920408#2 237920407#0 237920407#1 385669582 -7917435#6"/>
    </vehicle>
    <vehicle id="15" type="hSlowCar" depart="0.00">
        <route edges="187017421#0 187017421#1 187017421#2 187017421#3 207580076#0 207580076#1 207580076#2 108043727#0 108043727#1 108043727#2 209183483#0 209183483#1 209183483#2 7917430#0 7917430#1 473810915#0 473810915#1 473810916 473810917 126471497#12 126471497#13 -8080869"/>
    </vehicle>
    <vehicle id="16" type="hSlowCar" depart="0.00">
        <route edges="207728319#7 -207728319#7 -207728319#6 -207728319#5 -207728319#4 -207728319#3 -207728319#2 -207728319#1 -207728319#0 -385669582 -237920407#1 -237920407#0 -237920408#2 -237920408#1 -237920408#0 -207908670#5 -207908670#4 -207908670#3 -207908670#2 -207908670#1 128930533 -7917431#3 -7917431#2 -249202938#2 249202938#2"/>
    </vehicle>
    <vehicle id="17" type="hSlowCar" depart="0.00">
        <route edges="7653578#1 126471497#2 126471497#3 126471497#4 126471497#5 7917431#0 7917431#1 -249202938#2 249202933"/>
    </vehicle>
    <vehicle id="18" type="hSlowCar" depart="0.00">
        <route edges="128942887#2 128942887#3 18507815#1 18507815#2 38771468#0 38771468#1 38771468#2 38771468#3 448960167#1 386959361#0 386959361#1 386959361#2 386959361#3 138233900 18502699#1 18502699#2 18502699#3 18502702#0 18502702#1 -38771471#3 -38771471#2"/>
    </vehicle>
    <vehicle id="19" type="hSlowCar" depart="0.00">
        <route edges="-130629325#1 -130629325#0 -130629320#3 -130629320#2 -130629325#3 130629323 -130629320#0 119440078#2 119440078#3 119440078#4 174044127#0 174044127#1 143995130 207908670#3 207908670#4 7917436 174044129#0 174044129#1 174044129#2 174044129#3 122320050 122317544 409089012#0 409089012#1 409089012#2 174044131#0 174044131#1 174044131#2 174044131#3 174044131#4 -250777278#3 -250777278#2 -250777278#1 -250777278#0 250777280#3 250777280#4 -7395437#1 -7395437#0"/>
    </vehicle>
    <vehicle id="20" type="hSlowCar" depart="0.00">
        <route edges="18498615#1 147614652#0 147614652#1 -238770987#2 -238770987#1 -238770987#0 209183484 119440078#0 119440078#1 119440078#2 119440078#3 119440078#4 174044127#0 174044127#1 143995130 207908670#3 207908670#4 7917436 174044129#0 174044129#1 174044129#2 174044129#3 122320050 122317544 409089012#0 409089012#1 409089012#2 -130801488#4 -130801488#3 -130801488#2 373577568#0 373577568#1 131817724#0 131817724#1 -30836054#2 -30836054#1"/>
    </vehicle>
    <vehicle id="21" type="hSlowCar" depart="0.00">
        <route edges="-250777278#1 -250777278#0 250777280#3 250777280#4 250777280#0 250777280#1 250777279 128932869#0 128932869#1 219406890#0 219406890#1 126471497#0 126471497#1 126471497#2 126471497#3 126471497#4 126471497#5 126471497#6 126471497#7 126471497#8 126471497#9 126471497#10 126471497#11 126471497#12 126471497#13 126471497#14 126471497#15 473802585#0 473802585#1 473802585#2 473802585#3 473802585#4 473802585#5 473802585#6 473802584 126471498#0 126471498#1 126471498#2 126471498#3 126471498#4 126471498#5 126471498#6 126471498#7 473799031 473799033 473044947#0 473044947#1"/>
    </vehicle>
    <vehicle id="22" type="hSlowCar" depart="0.00">
        <route edges="473319952#2 448960166 448960167#0 448960167#1 386959361#0 386959361#1 386959361#2 386959361#3 138233900 18502699#1 128942883 128942877#0 128942877#1"/>
    </vehicle>
    <vehicle id="23" type="hSlowCar" depart="0.00">
        <route edges="250777278#1 250777278#2 250777278#3 250777278#4 250777278#5 207728319#9"/>
    </vehicle>
    <vehicle id="24" type="hSlowCar" depart="0.00">
        <route edges="-18498055 -207728318#1 -207728318#0 -207728321 -119438059#2 -119438059#1 -119438059#0 119438059#0"/>
    </vehicle>
    <vehicle id="26" type="hSlowCar" depart="0.00">
        <route edges="4324389#0 4324389#1 4324389#2 157655114#0 157655114#1 157655114#2 157655114#3 157655114#4 209183483#0 209183483#1 209183483#2 209183483#3 209183483#4 209183483#5 209183483#6 128930536 174044127#0 174044127#1 143995130 207908670#3 207908670#4 7917436 174044129#0 174044129#1 174044129#2 174044129#3 122320050 -124327151#0"/>
    </vehicle>
    <vehicle id="27" type="hSlowCar" depart="0.00">
        <route edges="-18507827 18507827 -128942877#2 -128942877#1 -128942877#0 18503839 18502699#3 18502702#0 18502702#1 18502702#2 18502702#3 18502697#3 18502697#4 18502697#0 18502703#0 18502703#1 18502703#2 18502703#3 209183484 119440078#0 119440078#1 119440078#2 18498052 -209183483#3 7917430#0 7917430#1 473810915#0 249202938#0"/>
    </vehicle>
    <vehicle id="28" type="hSlowCar" depart="0.00">
        <route edges="209183483#2 209183483#3 209183483#4 209183483#5 209183483#6 128930536 174044127#0 174044127#1 143995130 207908670#3 207908670#4 7917436 174044129#0 174044129#1 174044129#2 174044129#3 122320050 124327151#1 10361810#1"/>
    </vehicle>
    <vehicle id="29" type="hSlowCar" depart="0.00">
        <route edges="448945443 -128942877#5 -128942877#4 -128942877#3 -128942877#2 -128942877#1 -128942877#0 18503839 18502699#3 18502699#4 473319951 473319952#0 -38771470#0 386959361#1 386959361#2 386959361#3 138233900"/>
    </vehicle>
    <vehicle id="30" type="hSlowCar" depart="0.00">
        <route edges="-30836943#1 18503944#1 106608905#1 108265296#0 18502703#2 18502703#3 209183484 119440078#0 119440078#1 119440078#2 119440078#3 119440078#4 174044127#0 174044127#1 143995130 207908670#3 207908670#4 7917436 174044129#0 174044129#1 174044129#2 174044129#3 -7917435#5 128860141 128860140 128860144 426269742 129715327 128764681 128764682#0 128764682#1 128764684"/>
    </vehicle>
    <vehicle id="31" type="hSlowCar" depart="0.00">
        <route edges="134450503#0 128764683#1 128764683#2 128764680 128764685 7917439#1 7917439#2 7917439#3 7917439#4 126471497#3 126471497#4 126471497#5 7917431#0 7917431#1 7917431#2 7917431#3 128930534 128930536 174044127#0 174044127#1 143995130 207908670#3 207908670#4 7917436 174044129#0 174044129#1 174044129#2 174044129#3 122320050 122317544 25809315#4 25809315#5 25809315#6 25809315#7 25809315#8 240789892 132081728#3 132081728#4"/>
    </vehicle>
    <vehicle id="32" type="hSlowCar" depart="0.00">
        <route edges="30836983 -128942877#1 23892138#0 23892138#1 -18507830#1 18507830#1"/>
    </vehicle>
    <vehicle id="33" type="hSlowCar" depart="0.00">
        <route edges="18535920#2 -18535920#2 -18535920#1 -18535920#0 473799031 473799033 138233901 448960166 448960167#0 448960167#1 386959361#0 386959361#1 386959361#2 386959361#3 138233900 18502699#1 18502699#2 18502699#3 18502702#0 18502702#1 18502702#2 18502702#3 18502697#3 18502697#4 18502697#0 18502703#0 18502703#1 18502703#2 18502703#3 209183484 119440078#0 119440078#1 119440078#2 119440078#3 119440078#4 128930529 -207908670#0 -209183483#6 159830150"/>
    </vehicle>
    <vehicle id="34" type="hSlowCar" depart="0.00">
        <route edges="4325634#2 4325634#3 4325634#4 130096030 130096034#0 130096034#1 130096034#2 130096034#3 130096034#4 -207728319#4 -207728319#3 -207728319#2 -207728319#1 12182441 265905832 -207728320 -207728318#3 -207728318#2 -207728318#1 -207728318#0 -207728321 18498054"/>
    </vehicle>
    <vehicle id="35" type="hSlowCar" depart="0.00">
        <route edges="473810916 473810917 126471497#12 126471497#13 126471497#14 126471497#15 207580076#0 207580076#1 207580076#2 108043727#0 108043727#1 108043727#2 209183483#0 209183483#1 209183483#2 209183483#3 209183483#4 209183483#5 209183483#6 128930536 174044127#0 174044127#1 143995130 207908670#3 207908670#4 7917436 174044129#0 174044129#1 174044129#2 174044129#3 122320050 122317544 409089012#0 409089012#1 409089012#2 174044131#0 174044131#1 174044131#2 174044131#3 174044131#4 174044130#0 7345542"/>
    </vehicle>
    <vehicle id="36" type="hSlowCar" depart="0.00">
        <route edges="-250286860 -12182447#3 -12182447#2 -12182447#1 -12182447#0 -237920408#1 -237920408#0 -207908670#5 -207908670#4 -207908670#3 -207908670#2 -207908670#1 128930533 -7917431#3 -7917431#2"/>
    </vehicle>
    <vehicle id="37" type="hSlowCar" depart="0.00">
        <route edges="-8080895 126471498#6 126471498#7 473799031 473799033 138233901 448960166 448960167#0 448960167#1 386959361#0 386959361#1 386959361#2 386959361#3 138233900 18502699#1 18502699#2 18502699#3 18502702#0 18502702#1 18502702#2 18502702#3 18502697#3 18502697#4 18502697#0 18502703#0 18502703#1 18502703#2 18502703#3 209183484 119440078#0 119440078#1 119440078#2 119440078#3 119440078#4 174044127#0 174044127#1 143995130 207908670#3 207908670#4 7917436 174044129#0 174044129#1 174044129#2 174044129#3 122320050 122317544 409089012#0 409089012#1 409089012#2 174044131#0 174044131#1 174044131#2 174044131#3 174044131#4 250777278#4 250777278#5 250777278#6 272522216#1 272522216#2 272522216#3 -130096026#1 -130096026#0"/>
    </vehicle>
    <vehicle id="38" type="hSlowCar" depart="0.00">
        <route edges="250777277#0 250777277#1 128931501#0 128931501#1 128931501#2 128931501#3 128932869#1 219406890#0 219406890#1 126471497#0 126471497#1 126471497#2 126471497#3 126471497#4 126471497#5 7917431#0 7917431#1 7917431#2 7917431#3 128930534 128930536 -29205082#4 -29205082#3 -29205082#2 250286862#0"/>
    </vehicle>
    <vehicle id="39" type="hSlowCar" depart="0.00">
        <route edges="-207728319#2 -207728319#1 12182441 265905832 -207728320 -207728318#3 -207728318#2 -207728318#1 -207728318#0 -207728321 -119438059#2 -119438059#1 -119438059#0 -33581450#2 -33581450#1 -33581450#0 238770987#0 238770987#1 238770987#2 -147614652#1 18503941#0 18503941#1 448945443 -128942877#5 -128942877#4 -128942877#3 -128942877#2 -128942877#1 23892138#0 23892138#1 -18507830#1 18507830#1"/>
    </vehicle>
    <vehicle id="40" type="hSlowCar" depart="0.00">
        <route edges="7345542 4325634#3 4325634#4 130096030 130096034#0 130096034#1 130096034#2 130096034#3 130096034#4 -207728319#4 -207728319#3 -207728319#2 -207728319#1 12182441 265905832 -207728320 -207728318#3 -207728318#2 -207728318#1 -207728318#0 -207728321 -119438059#2 -119438059#1 -119438059#0 -33581450#2 -33581450#1 -33581450#0 238770987#0 238770987#1 238770987#2 -147614652#1 18503941#0 18503941#1 448945443 -128942877#5 -128942877#4 18503944#0"/>
    </vehicle>
    <vehicle id="41" type="hSlowCar" depart="0.00">
        <route edges="-7917431#2 7917431#2 7917431#3 128930534 128930536 -29205082#4 -29205082#3 -29205082#2 -29205082#1 -29205082#0 -207728321 -119438059#2 -119438059#1 -119438059#0 -33581450#2 -33581450#1 -33581450#0 238770987#0 18503942 106608905#1 106608905#2 18502697#0 18502697#1 18507815#0 18507815#1 18507815#2"/>
    </vehicle>
    <vehicle id="42" type="hSlowCar" depart="0.00">
        <route edges="173767393 7917439#2 7917439#3 7917439#4 126471497#3 126471497#4 126471497#5 126471497#6 126471497#7 126471497#8 126471497#9 126471497#10 126471497#11 126471497#12 126471497#13 126471497#14 126471497#15 207580076#0 207580076#1 207580076#2 108043727#0 108043727#1 108043727#2 209183483#0"/>
    </vehicle>
    <vehicle id="44" type="hSlowCar" depart="0.00">
        <route edges="4325634#0 4325634#1 4325634#2 4325634#3 -250777278#4 -250777278#3 -250777278#2 -250777278#1 -250777278#0 250777280#3 250777280#4 250777280#0 250777280#1 250777279 128932869#0 128932869#1 219406890#0 219406890#1 426269740 426269741#0 33581445#0"/>
    </vehicle>
    <vehicle id="45" type="hSlowCar" depart="0.00">
        <route edges="174044131#2 174044131#3 174044131#4 -250777278#3 -250777278#2 -250777278#1 -250777278#0 250777280#3 250777280#4 250777280#0 250777277#0 250777277#1"/>
    </vehicle>
    <vehicle id="46" type="hSlowCar" depart="0.00">
        <route edges="4325634#0 4325634#1 4325634#2 4325634#3 4325634#4 130096030 130096034#0 130096034#1 130096034#2 130096034#3 130096034#4 -207728319#4 -207728319#3 -207728319#2 -207728319#1 -207728319#0 -385669582 -237920407#1 -237920407#0 -237920408#2 -237920408#1 -237920408#0 -207908670#5 -207908670#4 -207908670#3 -207908670#2 -207908670#1 -207908670#0 128930536 -29205082#4 -29205082#3 160153626#0 160153623 160153622#2 160153626#2 160153626#3 160153624 160153627"/>
    </vehicle>
    <vehicle id="47" type="hSlowCar" depart="0.00">
        <route edges="138233901 448960166 448960167#0 448960167#1 386959361#0 386959361#1 386959361#2 386959361#3 138233900 18502699#1 18502699#2 18502699#3 18502702#0 18502702#1 18502702#2 171478972#0 171478972#1 18507815#2 38771468#0 -121700406 -4324389#1 -8080895 126471498#6 18535918#0 18535918#1 18535918#2 18535920#2 18535923#0 18535923#1"/>
    </vehicle>
    <vehicle id="48" type="hSlowCar" depart="0.00">
        <route edges="174044131#3 174044131#4 174044130#0 174044130#1"/>
    </vehicle>
    <vehicle id="49" type="hSlowCar" depart="0.00">
        <route edges="-148570066#1 -148570066#0 108043727#1 108043727#2 -157655114#4 -157655114#3 -157655114#2 -157655114#1 -157655114#0 -4324389#2 121700406 38771468#1 38771468#2 38771468#3 448960167#1 386959361#0 386959361#1 386959361#2 386959361#3 138233900 18502699#1 128942883 128942877#0 128942877#1"/>
    </vehicle>
    <vehicle id="50" type="hSlowCar" depart="0.00">
        <route edges="-250777278#5 250777278#5 250777278#6 272522216#1 272522215 119438058#0 119438058#1 119438058#2 119438058#3 119438058#4 119438058#5 119438058#6 119438058#7 119438058#8 119438058#9 265905833#0 265905833#1 265905832 12182442 385669582 -7917435#6 -7917435#5 7917435#5 7917435#6 -385669582 -237920407#1 -237920407#0 -237920408#2 -237920408#1 -237920408#0 -207908670#5 -207908670#4 -207908670#3 -207908670#2 -207908670#1 -207908670#0 128930536 -29205082#4 -29205082#3 -29205082#2 -29205082#1 -29205082#0 -207728321 -119438059#2 -119438059#1 -119438059#0 -33581450#2 -33581450#1 -150882376 119440078#1 119440078#2 119440078#3 119440078#4 174044127#0 174044127#1 143995130 207908670#3 207908670#4 7917436 174044129#0 174044129#1 174044129#2 174044129#3 122320050 -124327151#0 124327153 -207728319#0 -7917435#6 -7917435#5 -7917435#4 -7917435#3 -7917435#2 -7917435#1 7917435#1 7917435#2 7917435#3 7917435#4 7917435#5 7917435#6 -385669582 -237920407#1 -237920407#0 -237920408#2 -237920408#1 -237920408#0 -207908670#5 -207908670#4 -207908670#3 -207908670#2 -207908670#1 -207908670#0 128930536 -29205082#4 -29205082#3 -29205082#2 -29205082#1 -29205082#0 -207728321 -119438059#2 -119438059#1 -119438059#0 -33581450#2 -33581450#1 -33581450#0 238770987#0 18503942 106608905#1 106608905#2 18502697#0 18502697#1 18507815#0 18507815#1 18507815#2 18507815#3 157655114#0 157655114#1 157655114#2 7653582#0 7653582#1 7653585#1 -207580076#2 -207580076#1 -207580076#0 473802585#0 39236548#0 39236548#1 473802585#3 473802585#4 7653583#0 7653583#1 157655114#2 157655114#3 157655114#4 209183483#0 209183483#1 209183483#2 209183483#3 209183483#4 209183483#5 209183483#6 128930536 174044127#0 174044127#1 143995130 -207908670#2 -207908670#1 -207908670#0 -209183483#6 -209183483#5 -209183483#4 -209183483#3 -209183483#2 -209183483#1 -209183483#0 -157655114#4 -157655114#3 -157655114#2 -157655114#1 -157655114#0 -4324389#2 121700406 38771468#1 38771468#2 38771468#3 448960167#1 386959361#0 386959361#1 386959361#2 386959361#3 138233900 18502699#1 18502699#2 18502699#3 18502702#0 18502702#1 -38771471#3 -38771471#2 -38771471#1 -38771471#0 18502702#1 18502702#2 18502702#3 18502697#3 18502697#4 -106608905#2 -106608905#1 -18503942 238770987#1 -238770987#1 -238770987#0 209183484 119440078#0 119440078#1 119440078#2 119440078#3 119440078#4 174044127#0 174044127#1 143995130 207908670#3 207908670#4 207908670#5 237920408#0 -237920408#0 -207908670#5 -207908670#4 -207908670#3 -207908670#2 -207908670#1 -207908670#0 -209183483#6 -209183483#5 -209183483#4 -209183483#3 -209183483#2 -209183483#1 -209183483#0 -157655114#4 -157655114#3 -157655114#2 -157655114#1 -157655114#0 -4324389#2 4324389#2 157655114#0 157655114#1 157655114#2 157655114#3 157655114#4 209183483#0 209183483#1 209183483#2 209183483#3 209183483#4 209183483#5 209183483#6 128930536 174044127#0 174044127#1 143995130 207908670#3 207908670#4 7917436 7917439#0 7917439#1 7917439#2 7917439#3 7917439#4 126471497#3 126471497#4 126471497#5 126471497#6 126471497#7 126471497#8 126471497#9 126471497#10 126471497#11 126471497#12 126471497#13 126471497#14 126471497#15 473802585#0 473802585#1 473802585#2 473802585#3 473802585#4 473802585#5 473802585#6 473802584 126471498#0 126471498#1 126471498#2 126471498#3 126471498#4 126471498#5 126471498#6 18535918#0 18535918#1 18535918#2 -18535920#1 -18535920#0 473799031 473799033 138233901 448960166 448960167#0 448960167#1 386959361#0 386959361#1 386959361#2 386959361#3 138233900 18502699#1 18502699#2 18502699#3 18502702#0 18502702#1 18502702#2 18502702#3 18502697#3 18502697#4 18502697#0 18502703#0 18502703#1 18502703#2 18502703#3 209183484 119440078#0 119440078#1 119440078#2 119440078#3 119440078#4 174044127#0 174044127#1 143995130 207908670#3 207908670#4 7917436 174044129#0 174044129#1 174044129#2 174044129#3 122320050 122317544 409089012#0 409089012#1 409089012#2 174044131#0 174044131#1 174044131#2 174044131#3 174044131#4 -250777278#3 -250777278#2 250777278#2 -250777278#2 -250777278#1 -250777278#0 250777280#3 250777280#4 250777280#0 250777280#1 250777279 128932869#0 128932869#1 219406890#0 219406890#1 126471497#0 126471497#1 126471497#2 126471497#3 126471497#4 126471497#5 126471497#6 126471497#7 126471497#8 126471497#9 126471497#10 126471497#11 126471497#12 126471497#13 126471497#14 126471497#15 473802585#0 473802585#1 473802585#2 473802585#3 473802585#4 473802585#5 473802585#6 473802584 8080896 38771467 -157655114#0 157655114#0 157655114#1 157655114#2 157655114#3 157655114#4 209183483#0 209183483#1 209183483#2 209183483#3 209183483#4 209183483#5 209183483#6 207908670#0 128930533 -7917431#3 -7917431#2 -7917431#1 -7917431#0 -181422641#1"/>
    </vehicle>
    <vehicle id="52" type="hSlowCar" depart="0.00">
        <route edges="-106608905#2 108265296#0 18502703#2 18502703#3 209183484 119440078#0 119440078#1 119440078#2 119440078#3 119440078#4 128930529 128930533 -7917431#3 -7917431#2 -7917431#1 -7917431#0 -181422641#1 8080872#0 8080872#1"/>
    </vehicle>
    <vehicle id="53" type="hSlowCar" depart="0.00">
        <route edges="132081728#5 132081728#0 132081728#1 73012194#0 25809315#8 240789892 132081728#3 449707978 7917435#1 7917435#2 7917435#3 7917435#4 7917435#5 122320050 -124327151#0 124327153 207728319#1 124327152"/>
    </vehicle>
    <vehicle id="54" type="hSlowCar" depart="0.00">
        <route edges="164342019#2 426269737 122097041 237920407#1 385669582 207728319#0 12182441 265905832"/>
    </vehicle>
    <vehicle id="55" type="hSlowCar" depart="0.00">