<?xml version="1.0" encoding="UTF-8"?>

<!-- generated on Sat Aug 26 01:16:18 2017 by SUMO duarouter Version 0.21.0
<?xml version="1.0" encoding="UTF-8"?>

<configuration xmlns:xsi="http://www.w3.org/2001/XMLSchema-instance" xsi:noNamespaceSchemaLocation="http://sumo-sim.org/xsd/duarouterConfiguration.xsd">

    <input>
        <net-file value="erlangen.net.xml"/>
        <additional-files value="type.add.xml"/>
        <trip-files value="trips.trips.xml"/>
    </input>

    <output>
        <output-file value="erlangen.rou.xml"/>
    </output>

    <processing>
        <ignore-errors value="true"/>
    </processing>

    <time>
        <begin value="0"/>
        <end value="125.0"/>
    </time>

    <report>
        <no-step-log value="true"/>
    </report>

</configuration>
-->

<routes xmlns:xsi="http://www.w3.org/2001/XMLSchema-instance" xsi:noNamespaceSchemaLocation="http://sumo-sim.org/xsd/routes_file.xsd">
    <vType id="hSlowCar" length="5.00" minGap="2.50" maxSpeed="25.00" probability="0.05" color="blue">
        <carFollowing-Krauss accel="2.60" decel="4.50" sigma="0.50"/>
    </vType>
    <vehicle id="0" type="hSlowCar" depart="0.00">
        <route edges="-250777278#4 250777278#4 4325634#4 130096030 130096034#0 130096034#1 130096034#2 130096034#3 130096034#4 -207728319#4 -207728319#3 -207728319#2 -207728319#1 12182441 265905832 -207728320 -207728318#3 -207728318#2 -207728318#1 -207728318#0 -207728321 -119438059#2 -119438059#1 -119438059#0 -33581450#2 -33581450#1 -33581450#0 238770987#0 18503942 106608905#1 106608905#2 -106608905#2"/>
    </vehicle>
    <vehicle id="1" type="hSlowCar" depart="0.00">
        <route edges="29205082#3 29205082#4 174044127#0 174044127#1 143995130 207908670#3 207908670#4 7917436 174044129#0 174044129#1 174044129#2 174044129#3 122320050 122317544 409089012#0 409089012#1 409089012#2 -130801488#4 -130801488#3 -130801488#2 373577568#0 373577568#1 131817724#0 131817724#1 128931504#0 128931504#1 128752306 128752309 128752310#0 128752310#1 128752310#2 128752310#3 128752310#4"/>
    </vehicle>
    <vehicle id="2" type="hSlowCar" depart="0.00">
        <route edges="25736273 -207908670#4 -207908670#3 -207908670#2 -207908670#1 -207908670#0 -209183483#6 -209183483#5 -209183483#4 -209183483#3 -209183483#2 -209183483#1 -209183483#0 -157655114#4 -157655114#3 -157655114#2 -157655114#1 -157655114#0 -4324389#2 121700406 38771468#1 38771468#2 38771468#3 448960167#1 386959361#0 38771470#0 473319952#1"/>
    </vehicle>
    <vehicle id="3" type="hSlowCar" depart="0.00">
        <route edges="128752304 128931504#1 128931504#2 174044131#3 174044131#4 -250777278#3 -250777278#2 -250777278#1 -250777278#0 250777280#3 250777280#4 250777280#0 250777280#1 250777279 128932869#0 128932869#1 219406890#0 219406890#1 126471497#0 126471497#1 126471497#2 126471497#3 126471497#4 126471497#5 126471497#6 126471497#7 126471497#8 126471497#9 126471497#10 126471497#11 126471497#12 126471497#13 126471497#14 126471497#15 473802585#0 473802585#1 473802585#2 473802585#3 473802585#4 473802585#5 473802585#6 -172707330"/>
    </vehicle>
    <vehicle id="4" type="hSlowCar" depart="0.00">
        <route edges="18507830#1 18507830#2 18507827 -128942877#2 -128942877#1 -128942877#0 18503839 18502699#3 18502702#0 18502702#1 18502702#2 18502702#3 18502697#3 18502697#4 18502697#0 18502703#0 18502703#1 18502703#2 18502703#3 209183484 119440078#0 119440078#1 119440078#2 119440078#3 119440078#4 128930529 -207908670#0 -209183483#6 -209183483#5"/>
    </vehicle>
    <vehicle id="5" type="hSlowCar" depart="0.00">
        <route edges="134450503#1 134450503#2 128764683#2 128764680 128764685 7917439#1 7917439#2 7917439#3 7917439#4 126471497#3 126471497#4 126471497#5 126471497#6 126471497#7 126471497#8 126471497#9 126471497#10 126471497#11 126471497#12 126471497#13 126471497#14 126471497#15 -187017421#3 -187017421#2 -187017421#1 244823983"/>
    </vehicle>
    <vehicle id="7" type="hSlowCar" depart="0.00">
        <route edges="-250286862#0 29205082#2 29205082#3 29205082#4 174044127#0 174044127#1 143995130 207908670#3 207908670#4 7917436 174044129#0 174044129#1 174044129#2 174044129#3 -7917435#5 -7917435#4 -7917435#3 -7917435#2 -7917435#1 -7917435#0 -426269741#1 -426269741#0 -426269740 -219406890#1 128734441"/>
    </vehicle>
    <vehicle id="8" type="hSlowCar" depart="0.00">
        <route edges="-128942877#1 -128942877#0 18503839 18502699#3 18502702#0 18502702#1 18502702#2 18502702#3 18502697#3 18502697#4 18502697#0 18502703#0 18502703#1 18502703#2 18502703#3 209183484 119440078#0 119440078#1 119440078#2 119440078#3 119440078#4 174044127#0 174044127#1 143995130 207908670#3 207908670#4 7917436 174044129#0 174044129#1 174044129#2 174044129#3 122320050 122317544 25809315#4 25809315#5"/>
    </vehicle>
    <vehicle id="9" type="hSlowCar" depart="0.00">
        <route edges="8080913 -8080913"/>
    </vehicle>
    <vehicle id="10" type="hSlowCar" depart="0.00">
        <route edges="119440078#0 119440078#1 119440078#2 119440078#3 119440078#4 128930529 128930533 -7917431#3 -7917431#2 -7917431#1 -7917431#0 126471497#6 126471497#7 126471497#8 126471497#9 126471497#10 126471497#11 126471497#12 126471497#13 126471497#14"/>
    </vehicle>
    <vehicle id="11" type="hSlowCar" depart="0.00">
        <route edges="-209183483#5 209183483#5 209183483#6 128930536 174044127#0 174044127#1 143995130 207908670#3 207908670#4 7917436 7917439#0 7917439#1 7917439#2 7917439#3 7917439#4 126471497#3 126471497#4"/>
    </vehicle>
    <vehicle id="12" type="hSlowCar" depart="0.00">
        <route edges="-38771467 38771467 157655114#1 157655114#2 157655114#3 157655114#4 209183483#0 209183483#1 209183483#2 209183483#3 209183483#4 209183483#5 209183483#6 128930536 174044127#0 174044127#1 143995130 207908670#3 207908670#4 7917436 174044129#0 174044129#1 174044129#2 174044129#3 122320050 122317544 409089012#0 409089012#1 409089012#2 174044131#0 174044131#1 174044131#2 174044131#3 174044131#4 -250777278#3 -250777278#2 -250777278#1 -250777278#0 250777280#3 250777280#4 250777280#0 250777277#0 250777277#1"/>
    </vehicle>
    <vehicle id="13" type="hSlowCar" depart="0.00">
        <route edges="12182441 265905832 -207728320 -207728318#3 -207728318#2 -207728318#1 -207728318#0 29205082#0 29205082#1 29205082#2 29205082#3 29205082#4 128930529 128930533 -7917431#3 -7917431#2 -7917431#1 -7917431#0 126471497#6 126471497#7 126471497#8 126471497#9 126471497#10 126471497#11 126471497#12 126471497#13 126471497#14"/>
    </vehicle>
    <vehicle id="14" type="hSlowCar" depart="0.00">
        <route edges="-157655114#3 157655114#3 157655114#4 209183483#0 209183483#1 209183483#2 209183483#3 209183483#4 209183483#5 209183483#6 128930536 174044127#0 174044127#1 143995130 207908670#3 207908670#4 7917436 174044129#0 174044129#1 174044129#2 174044129#3 122320050 122317544 409089012#0 128925249 128925240 128925241#0 128925241#1"/>
    </vehicle>
    <vehicle id="15" type="hSlowCar" depart="0.00">
        <route edges="4324389#0 4324389#1 4324389#2 157655114#0 157655114#1 157655114#2 157655114#3 157655114#4 209183483#0 209183483#1 209183483#2 209183483#3 209183483#4 209183483#5 209183483#6 128930536 174044127#0 174044127#1 143995130 207908670#3 207908670#4 7917436 174044129#0 174044129#1 174044129#2 174044129#3 122320050 122317544 409089012#0 409089012#1 409089012#2 -130801488#4 -130801488#3 -130801488#2 373577568#0 373577568#1 131817724#0 131817724#1 131817724#2"/>
    </vehicle>
    <vehicle id="16" type="hSlowCar" depart="0.00">
        <route edges="7917438#0 7917438#1 7917438#2 128764682#1 128764684 128764683#0 128764683#1 128764683#2 128764680 128764685 7917439#1 7917439#2 7917439#3 7917439#4 126471497#3 126471497#4 126471497#5 126471497#6 126471497#7 126471497#8 126471497#9 126471497#10 126471497#11 126471497#12 126471497#13 126471497#14 126471497#15 473802585#0 473802585#1 473802585#2 473802585#3 473802585#4 473802585#5 473802585#6 473802584 126471498#0 126471498#1 126471498#2"/>
    </vehicle>
    <vehicle id="17" type="hSlowCar" depart="0.00">
        <route edges="173767393 7917439#2 7917439#3 7917439#4 126471497#3 126471497#4 126471497#5 7917431#0 7917431#1 7917431#2 7917431#3 128930534 128930536 174044127#0 174044127#1 143995130 207908670#3 207908670#4 207908670#5 237920408#0 237920408#1 237920408#2 237920407#0 237920407#1 385669582 207728319#0 12182441"/>
    </vehicle>
    <vehicle id="18" type="hSlowCar" depart="0.00">
        <route edges="-207728319#4 207728319#4 207728319#5 207728319#6 207728319#7 207728319#8 -250777278#5 -250777278#4"/>
    </vehicle>
    <vehicle id="19" type="hSlowCar" depart="0.00">
        <route edges="18535920#1 -18535920#1 -18535920#0 473799031 473799033 138233901 448960166 448960167#0 448960167#1 386959361#0 386959361#1 386959361#2 386959361#3 138233900 18502699#1 18502699#2 18502699#3 18502702#0 18502702#1 18502702#2 18502702#3 18502697#3 18502697#4 18502697#0 18502703#0 18502703#1 18502703#2 18502703#3 209183484 119440078#0 119440078#1 119440078#2 119440078#3 119440078#4 174044127#0 174044127#1 143995130 207908670#3 207908670#4 7917436 174044129#0 174044129#1 174044129#2 174044129#3"/>
    </vehicle>
    <vehicle id="20" type="hSlowCar" depart="0.00">
        <route edges="477871907 477871906#1 18535921#0 18535921#1 -7651496#0 4324389#0 4324389#1 4324389#2 157655114#0 157655114#1 157655114#2 7653582#0 7653582#1 7653585#1 -207580076#2 -207580076#1 -207580076#0 -187017421#3 -187017421#2"/>
    </vehicle>
    <vehicle id="21" type="hSlowCar" depart="0.00">
        <route edges="4324389#0 4324389#1 4324389#2 157655114#0 157655114#1 157655114#2 157655114#3 157655114#4 209183483#0 209183483#1 209183483#2 209183483#3 209183483#4 209183483#5 209183483#6 128930536 174044127#0 174044127#1 143995130 207908670#3 207908670#4 7917436 174044129#0 174044129#1 174044129#2 174044129#3 122320050 122317544 409089012#0 409089012#1 409089012#2 174044131#0 174044131#1 174044131#2 174044131#3 174044131#4 174044130#0 7345542 4325634#3 4325634#4 130096030 130096034#0 130096034#1 130096034#2 130096034#3 130096034#4 -207728319#4 -207728319#3 -207728319#2 -207728319#1 12182441 265905832 -207728320 -207728318#3 -207728318#2 -207728318#1 -207728318#0 -207728321 -119438059#2 -119438059#1 -119438059#0 -33581450#2 -33581450#1 -33581450#0 238770987#0 238770987#1 238770987#2 -147614652#1 18503941#0 18503941#1 448945443 -128942877#5 -128942877#4 -128942877#3 -128942877#2 -128942877#1 -128942877#0 18503839 18502699#3 18502702#0 38771471#0 38771471#1 38771471#2 38771471#3 18502702#2 18502702#3 18502697#3 18502697#4 18502697#0 18502703#0 18502703#1 18502703#2 18502703#3 209183484 119440078#0 119440078#1 130629320#0 -130629323 130629325#3 130629320#2 130629321 130629325#2 130629323 -130629320#0 119440078#2 119440078#3 159826765 209183483#5 209183483#6 128930536 174044127#0 174044127#1 143995130 207908670#3 207908670#4 7917436 174044129#0 174044129#1 174044129#2 174044129#3 -7917435#5 -7917435#4 -7917435#3 -7917435#2 -7917435#1 -7917435#0 -426269741#1 -426269741#0 -426269740 126471497#0 7917438#0 173767393"/>
    </vehicle>
    <vehicle id="22" type="hSlowCar" depart="0.00">
        <route edges="-7651496#1 -7651496#0 4324389#0 -8080895 -317373389 -317373387 317373386"/>
    </vehicle>
    <vehicle id="23" type="hSlowCar" depart="0.00">
        <route edges="281839635 126471498#3 126471498#4 126471498#5 126471498#6 126471498#7 473799031 473799033 138233901 448960166 448960167#0 448960167#1 386959361#0 386959361#1 386959361#2 386959361#3 138233900 18502699#1 18502699#2 18502699#3 18502702#0 18502702#1 18502702#2 18502702#3 18502697#3 18502697#4 18502697#0 18502703#0 18502703#1 18502703#2 18502703#3 209183484 119440078#0 119440078#1 119440078#2 119440078#3 119440078#4 174044127#0 174044127#1 143995130 207908670#3 207908670#4 7917436 174044129#0 174044129#1 174044129#2 174044129#3 122320050 122317544 409089012#0 409089012#1 409089012#2 130801488#5 130801488#6 129220841"/>
    </vehicle>
    <vehicle id="24" type="hSlowCar" depart="0.00">
        <route edges="219406890#0 219406890#1 126471497#0 126471497#1 126471497#2 126471497#3 126471497#4 126471497#5 7917431#0 7917431#1 7917431#2 7917431#3 128930534 128930536 -29205082#4 -29205082#3 -29205082#2 -29205082#1 -29205082#0 -207728321 -119438059#2 -119438059#1 -119438059#0 -33581450#2 -33581450#1 -33581450#0 238770987#0 238770987#1 238770987#2 -147614652#1 -147614652#0 -18507860"/>
    </vehicle>
    <vehicle id="25" type="hSlowCar" depart="0.00">
        <route edges="7653582#0 7653582#1 7653585#1 108043727#0 108043727#1 108043727#2 209183483#0 209183483#1 209183483#2 209183483#3 209183483#4 209183483#5 209183483#6 128930536 174044127#0 174044127#1 143995130 207908670#3 207908670#4 7917436 7917439#0 7917439#1 7917439#2 7917439#3 7917439#4"/>
    </vehicle>
    <vehicle id="26" type="hSlowCar" depart="0.00">
        <route edges="131817724#2 -250777278#1 -250777278#0 250777280#3 250777280#4 250777280#0 250777280#1 250777279 128932869#0 128932869#1 219406890#0 219406890#1 126471497#0 126471497#1 126471497#2 126471497#3 126471497#4 126471497#5 7917431#0 7917431#1 7917431#2 7917431#3 128930534 128930536 -29205082#4 -29205082#3 -29205082#2 -29205082#1 -29205082#0 -207728321 18498054"/>
    </vehicle>
    <vehicle id="27" type="hSlowCar" depart="0.00">
        <route edges="256664776#0 -256664776#0 -18535923#0 -18535920#2 -18535920#1 -18535920#0 473799031 473799033 138233901 448960166 448960167#0 448960167#1 386959361#0 386959361#1 386959361#2 386959361#3 138233900 18502699#1 18502699#2 18502699#3 18502702#0 18502702#1 18502702#2 18502702#3 18502697#3 18502697#4 18502697#0 18502703#0 18502703#1 18502703#2 18502703#3 209183484 119440078#0 119440078#1 119440078#2 119440078#3 119440078#4 -29205082#4 -29205082#3 160153626#0 160153623 160153622#2 160153626#2 160153628"/>
    </vehicle>
    <vehicle id="28" type="hSlowCar" depart="0.00">
        <route edges="-7651496#1 -7651496#0 138233901 448960166 448960167#0 448960167#1 386959361#0 386959361#1 386959361#2 386959361#3 138233900 18502699#1 18502699#2 18502699#3 18502702#0 18502702#1 18502702#2 18502702#3 18502697#3 18502697#4 -106608905#2 -106608905#1 -106608905#0 -147614652#1 -147614652#0 -18498615#1 18498615#1"/>
    </vehicle>
    <vehicle id="29" type="hSlowCar" depart="0.00">
        <route edges="-18535923#0 -18535920#2 -18535920#1 -18535920#0 473799031 473799033 138233901 448960166 448960167#0 448960167#1 386959361#0 386959361#1 386959361#2 386959361#3 138233900 18502699#1 18502699#2 18502699#3 18502702#0 18502702#1 18502702#2 18502702#3 18502697#3 18502697#4 18502697#0 18502703#0 18502703#1 18502703#2 18502703#3 209183484 119440078#0 119440078#1 119440078#2 119440078#3 119440078#4 174044127#0 174044127#1 143995130 207908670#3 207908670#4 7917436 174044129#0 174044129#1 174044129#2 174044129#3 122320050 122317544 409089012#0 409089012#1 409089012#2 -130801488#4 -130801488#3 -130801488#2 130801488#2"/>
    </vehicle>
    <vehicle id="30" type="hSlowCar" depart="0.00">
        <route edges="7653582#2 473802585#2 473802585#3 473802585#4 7653583#0 7653583#1 157655114#2 157655114#3 157655114#4 18501717 33581450#0 33581450#1 33581450#2 119438059#0 119438059#1 119438059#2 207728321 207728318#0 207728318#1 207728318#2 207728318#3 207728320 -265905832 -265905833#1 -265905833#0 -119438058#9"/>
    </vehicle>
    <vehicle id="31" type="hSlowCar" depart="0.00">
        <route edges="18503944#1 106608905#1 106608905#2 18502697#0 18502697#1 18507815#0 18507815#1 18507815#2 18507815#3 157655114#0 157655114#1 157655114#2 7653582#0 7653582#1 -7653585#0"/>
    </vehicle>
    <vehicle id="32" type="hSlowCar" depart="0.00">
        <route edges="25809315#9 25809315#10 132967554 130801488#2 130801488#3 130801488#4 130801488#5 130801488#6 130801488#7 130801488#8 130801488#9 130801488#10 -207728319#3 -207728319#2 -207728319#1 -207728319#0 -385669582 -237920407#1 -237920407#0 -237920408#2 12182447#0 12182447#1 12182447#2 12182447#3 250286860"/>
    </vehicle>
    <vehicle id="33" type="hSlowCar" depart="0.00">
        <route edges="-250777278#5 4325634#4 130096030 130096034#0 130096034#1 130096034#2 130096034#3 130096034#4 -207728319#4 -207728319#3 -207728319#2 -207728319#1 12182441 265905832 -207728320 -207728318#3 -207728318#2 -207728318#1 -207728318#0 -207728321 -119438059#2 -119438059#1 -119438059#0 -33581450#2 -33581450#1 -33581450#0 238770987#0 238770987#1 238770987#2 -147614652#1 18503941#0 18503941#1 448945443 -128942877#5 30837150 -18507830#3 18507827 -128942877#2 -128942877#1 -128942877#0 18503839 18502699#3 18502702#0 18502702#1 18502702#2 18502702#3 18502697#3 18502697#4 18502697#0 18502703#0 18502703#1 18502703#2 18502703#3 209183484 119440078#0 119440078#1 119440078#2 119440078#3 119440078#4 174044127#0 174044127#1 143995130 207908670#3 207908670#4 207908670#5 237920408#0 237920408#1 12182447#0 12182447#1 12182447#2 250286863#0 -250286863#2 -250286863#1 -250286863#0 -12182447#2 -12182447#1 -12182447#0 -237920408#1 -237920408#0 -207908670#5 -207908670#4 -207908670#3 -207908670#2 -207908670#1 128930533 -7917431#3 7917431#3 128930534 128930536 174044127#0 174044127#1 143995130 207908670#3 207908670#4 7917436 174044129#0 174044129#1 174044129#2 174044129#3 122320050 122317544 409089012#0 409089012#1 409089012#2 -130801488#4 -130801488#3 -130801488#2 -130801488#1 219406890#0 219406890#1 126471497#0 126471497#1 126471497#2 126471497#3 126471497#4 126471497#5 7917431#0 7917431#1 7917431#2 7917431#3 128930534 128930536 -29205082#4 -29205082#3 -29205082#2 -29205082#1 -29205082#0 -207728321 -119438059#2 -119438059#1 -119438059#0 -33581450#2 -33581450#1 -33581450#0 238770987#0 238770987#1 238770987#2 -147614652#1 18503941#0 18503941#1 448945443 -128942877#5 -128942877#4 18503944#0 -30836943#0 18502697#4 18502697#0 18502697#1 18507815#0 18507815#1 18507815#2 18507815#3 157655114#0 157655114#1 157655114#2 7653582#0 7653582#1 7653585#1 -207580076#2 -207580076#1 -207580076#0 -187017421#3 -187017421#2 -187017421#1 -187017421#0 187017421#0 187017421#1 187017421#2 187017421#3 207580076#0 207580076#1 207580076#2 108043727#0 108043727#1 108043727#2 209183483#0 209183483#1 209183483#2 209183483#3 209183483#4 209183483#5 209183483#6 207908670#0 128930533 -7917431#3 -7917431#2 -7917431#1 -7917431#0 126471497#6 159831778#1 126471497#8 126471497#9 126471497#10 126471497#11 126471497#12 126471497#13 126471497#14 126471497#15 207580076#0 207580076#1 207580076#2 -7653585#1 7653582#2 473802585#2 473802585#3 473802585#4 7653583#0 7653583#1 157655114#2 157655114#3 157655114#4 18501717 33581450#0 33581450#1 33581450#2 119438059#0 119438059#1 119438059#2 207728321 207728318#0 207728318#1 207728318#2 207728318#3 207728320 -265905832 -265905833#1 -265905833#0 -119438058#9 119438058#9 265905833#0 265905833#1 265905832 -207728320 -207728318#3 -207728318#2 -207728318#1 -207728318#0 -207728321 -119438059#2 -119438059#1 -119438059#0 -33581450#2 -33581450#1 -33581450#0 238770987#0 18503942 106608905#1 106608905#2 18502697#0 18502697#1 18507815#0 18507815#1 18507815#2 38771468#0 -121700406 -4324389#1 -8080895 126471498#6 18535918#0 18535918#1 18535918#2 477871907 477871906#1 18535921#0 18535921#1 -7651496#0 138233901 448960166 448960167#0 448960167#1 386959361#0 386959361#1 386959361#2 386959361#3 138233900 18502699#1 18502699#2 18502699#3 18502702#0 18502702#1 18502702#2 18502702#3 18502697#3 18502697#4 18502697#0 18502703#0 18502703#1 18502703#2 18502703#3 33581450#0 33581450#1 33581450#2 119438059#0 119438059#1 119438059#2 207728321 207728318#0 207728318#1 207728318#2 -12182447#5 12182447#5 -12182447#5 -12182447#4 -12182447#3 -12182447#2 -12182447#1 -12182447#0 237920408#2 237920407#0 237920407#1 385669582 207728319#0 207728319#1 207728319#2 207728319#3 207728319#4 207728319#5 207728319#6 207728319#7 207728319#8 -207728319#8 -207728319#7 -207728319#6 -207728319#5 -207728319#4 -207728319#3 -207728319#2 -207728319#1 -207728319#0 -385669582 -237920407#1 -237920407#0 -237920408#2 -237920408#1 -237920408#0 -207908670#5 -207908670#4 -207908670#3 -207908670#2 -207908670#1 -207908670#0 -209183483#6 -209183483#5 -209183483#4 -209183483#3 -209183483#2"/>
    </vehicle>
    <vehicle id="34" type="hSlowCar" depart="0.00">
        <route edges="-18507830#1 23892137 448960166 448960167#0 448960167#1 386959361#0 386959361#1 386959361#2 386959361#3 138233900 18502699#1 18502699#2 18502699#3 18502702#0 18502702#1 18502702#2 18502702#3 18502697#3 18502697#4 18502697#0 18502703#0 18502703#1 18502703#2 18502703#3 209183484 119440078#0 119440078#1 119440078#2 119440078#3 119440078#4 174044127#0 174044127#1 143995130 207908670#3 207908670#4 207908670#5 237920408#0 237920408#1 12182447#0 12182447#1 12182447#2 12182447#3 250286860"/>
    </vehicle>
    <vehicle id="35" type="hSlowCar" depart="0.00">
        <route edges="18507815#2 18507815#3 157655114#0 157655114#1 157655114#2 157655114#3 157655114#4 18501717 33581450#0 33581450#1 33581450#2 119438059#0 119438059#1 119438059#2 207728321 207728318#0 207728318#1 207728318#2"/>
    </vehicle>
    <vehicle id="36" type="hSlowCar" depart="0.00">
        <route edges="-18507830#3 18507827 128942877#3 18503944#0 18503944#1 106608905#1 -106608905#1"/>
    </vehicle>
    <vehicle id="37" type="hSlowCar" depart="0.00">
        <route edges="157655114#1 157655114#2 157655114#3 157655114#4 18501717 33581450#0 33581450#1 33581450#2 119438059#0 119438059#1 119438059#2 207728321 207728318#0 207728318#1 207728318#2 207728318#3"/>
    </vehicle>
    <vehicle id="38" type="hSlowCar" depart="0.00">
        <route edges="219495257 -207728318#3 -207728318#2 -207728318#1 -207728318#0 -207728321 -119438059#2 -119438059#1 -119438059#0 -33581450#2 -33581450#1 -33581450#0 238770987#0 238770987#1 238770987#2 -147614652#1 18503941#0 18503941#1 448945443 -128942877#5 -128942877#4"/>
    </vehicle>
    <vehicle id="39" type="hSlowCar" depart="0.00">
        <route edges="8080913 8080897#0 38771467 157655114#1 157655114#2 157655114#3 157655114#4 209183483#0 209183483#1 209183483#2 209183483#3 209183483#4 209183483#5 209183483#6 128930536 174044127#0 174044127#1 143995130 207908670#3 207908670#4 7917436 174044129#0 174044129#1 174044129#2 174044129#3 122320050"/>
    </vehicle>
    <vehicle id="40" type="hSlowCar" depart="0.00">
        <route edges="173767393 7917439#2 7917439#3 7917439#4 126471497#3 126471497#4 126471497#5 7917431#0 7917431#1 7917431#2 7917431#3 128930534 128930536 174044127#0 174044127#1 143995130 207908670#3 207908670#4 7917436 174044129#0 174044129#1 174044129#2 174044129#3 122320050 122317544 409089012#0 409089012#1 409089012#2 174044131#0 174044131#1 174044131#2 174044131#3 174044131#4 -250777278#3"/>
    </vehicle>
    <vehicle id="41" type="hSlowCar" depart="0.00">
        <route edges="126471497#4 126471497#5 -181422641#1 8080872#0 8080872#1 134661171 385669584#1 126471497#0 7917438#0"/>
    </vehicle>
    <vehicle id="42" type="hSlowCar" depart="0.00">
        <route edges="8080872#0 8080872#1 7653578#1 126471497#2 126471497#3 126471497#4 126471497#5 126471497#6 126471497#7 126471497#8 126471497#9 126471497#10 126471497#11 126471497#12 126471497#13 126471497#14 126471497#15 473802585#0 473802585#1 473802585#2 473802585#3 473802585#4 473802585#5 473802585#6 473802584 126471498#0 126471498#1 126471498#2 126471498#3 126471498#4 126471498#5 126471498#6 126471498#7 473799031 473799033 473044947#0 362429224#2 362429224#0"/>
    </vehicle>
    <vehicle id="43" type="hSlowCar" depart="0.00">
        <route edges="25809315#4 25809315#5 10361810#0 -124327151#1 -124327151#0 124327153 -207728319#0 -385669582 -237920407#1 -237920407#0 -237920408#2 -237920408#1 -237920408#0 -207908670#5 -207908670#4 -207908670#3 -207908670#2 -207908670#1 -207908670#0 -209183483#6 -209183483#5 -209183483#4 -209183483#3 -209183483#2 -209183483#1"/>
    </vehicle>
    <vehicle id="44" type="hSlowCar" depart="0.00">
        <route edges="-250777278#4 -250777278#3 -250777278#2 -250777278#1 -250777278#0 250777280#3 250777280#4 250777280#0 250777280#1 250777279 128932869#0 128932869#1 219406890#0 219406890#1 126471497#0 126471497#1 126471497#2 126471497#3 126471497#4 126471497#5 126471497#6 126471497#7 126471497#8 126471497#9 126471497#10 126471497#11 126471497#12 126471497#13 126471497#14 126471497#15 473802585#0 473802585#1 473802585#2 473802585#3 473802585#4 473802585#5 473802585#6 473802584 8080896 38771467 -38771467"/>
    </vehicle>
    <vehicle id="45" type="hSlowCar" depart="0.00">
        <route edges="-108255160 -209183483#0 -157655114#4 -157655114#3 -157655114#2 -157655114#1 -157655114#0 -4324389#2 121700406 38771468#1 38771468#2 38771468#3 448960167#1 386959361#0 386959361#1 386959361#2 386959361#3 138233900 18502699#1 128942883 128942877#0 23892138#0 23892138#1 -18507830#1 18507830#1"/>
    </vehicle>
    <vehicle id="46" type="hSlowCar" depart="0.00">
        <route edges="7653583#1 157655114#2 157655114#3 157655114#4 18501717 238770987#0 238770987#1 238770987#2 -147614652#1 -147614652#0 -18498615#1"/>
    </vehicle>
    <vehicle id="47" type="hSlowCar" depart="0.00">
        <route edges="157655114#3 -157655114#3 -157655114#2 -157655114#1 -157655114#0 -4324389#2 -4324389#1 -8080895 -317373389"/>
    </vehicle>
    <vehicle id="48" type="hSlowCar" depart="0.00">
        <route edges="38771471#2 38771471#3 18502702#2 18502702#3 18502697#3 18502697#4 18502697#0 18502703#0 18502703#1 18502703#2 18502703#3 209183484 119440078#0 119440078#1 119440078#2 119440078#3 119440078#4 174044127#0 174044127#1 143995130 207908670#3 207908670#4 7917436 174044129#0 174044129#1 174044129#2 174044129#3 122320050 122317544 409089012#0 409089012#1 409089012#2 174044131#0 174044131#1 174044131#2 174044131#3 174044131#4 174044130#0"/>
    </vehicle>
    <vehicle id="49" type="hSlowCar" depart="0.00">
        <route edges="4325634#1 4325634#2 4325634#3 4325634#4 130096030 130096034#0 130096034#1 130096034#2 130096034#3 130096034#4 -207728319#4 -207728319#3 -207728319#2 -207728319#1 12182441 265905832 -207728320 -207728318#3 -207728318#2 -207728318#1 -207728318#0 -207728321 -119438059#2 -119438059#1 -119438059#0 -33581450#2 -33581450#1 -33581450#0 238770987#0 238770987#1 238770987#2 -147614652#1 -147614652#0 -18507860"/>
    </vehicle>
    <vehicle id="50" type="hSlowCar" depart="0.00">
        <route edges="18503944#1 106608905#1 108265296#0 18502703#2 18502703#3 209183484 119440078#0 119440078#1 119440078#2 119440078#3 119440078#4 174044127#0 174044127#1 143995130 207908670#3 207908670#4 7917436 174044129#0 174044129#1 174044129#2 174044129#3 122320050 122317544 409089012#0 409089012#1 409089012#2 174044131#0 174044131#1 174044131#2 174044131#3 174044131#4 250777278#4 250777278#5 207728319#9"/>
    </vehicle>
    <vehicle id="51" type="hSlowCar" depart="0.00">
        <route edges="-128942877#1 -128942877#0 18503839 18502699#3 18502702#0 18502702#1 18502702#2 171478972#0 171478972#1 18507815#2"/>
    </vehicle>
    <vehicle id="52" type="hSlowCar" depart="0.00">
        <route edges="18535919#1 -18535920#0 473799031 473799033 138233901 448960166 448960167#0 448960167#1 386959361#0 386959361#1 386959361#2 386959361#3 138233900 18502699#1 18502699#2 18502699#3 18502702#0 18502702#1 18502702#2 18502702#3 18502697#3 18502697#4 18502697#0 18502703#0 18502703#1 18502703#2 18502703#3 209183484 119440078#0 119440078#1 119440078#2 119440078#3 119440078#4 174044127#0 174044127#1 143995130 207908670#3 207908670#4 207908670#5 237920408#0 237920408#1 237920408#2 237920407#0 237920407#1 385669582 -7917435#6"/>
    </vehicle>
    <vehicle id="53" type="hSlowCar" depart="0.00">
        <route edges="-207728318#0 -207728321 -119438059#2 -119438059#1 -119438059#0 -33581450#2 -33581450#1 -33581450#0 238770987#0 238770987#1 238770987#2 -147614652#1 18503941#0 18503941#1 448945443 -128942877#5 -128942877#4 18503944#0"/>
    </vehicle>
    <vehicle id="54" type="hSlowCar" depart="0.00">
        <route edges="219406890#1 126471497#0 126471497#1 126471497#2 126471497#3 126471497#4 126471497#5 126471497#6 126471497#7 126471497#8 126471497#9 126471497#10 126471497#11 126471497#12 126471497#13 126471497#14 126471497#15 207580076#0 207580076#1 207580076#2 108043727#0 108043727#1 108043727#2 18501717"/>
    </vehicle>
    <vehicle id="55" type="hSlowCar" depart="0.00">
        <route edges="29205082#1 -29205082#1 -29205082#0 -207728321 -119438059#2 -119438059#1 -119438059#0 -33581450#2 -33581450#1 -33581450#0 238770987#0 238770987#1 238770987#2 -147614652#1 18503941#0 18503941#1 448945443 -128942877#5 -128942877#4 -128942877#3 -128942877#2 -128942877#1 -128942877#0 18503839 18502699#3 18502702#0"/>
    </vehicle>
    <vehicle id="57" type="hSlowCar" depart="0.00">
        <route edges="18502703#3 33581450#0 33581450#1 33581450#2 119438059#0 119438059#1 119438059#2 207728321 207728318#0 207728318#1 207728318#2 207728318#3 207728320 -265905832 -265905833#1 -265905833#0 -119438058#9 -119438058#8 -119438058#7 -119438058#6 -119438058#5 -119438058#4 -119438058#3 119438058#3"/>
    </vehicle>
    <vehicle id="58" type="hSlowCar" depart="0.00">
        <route edges="128942877#5 -128942877#5 -128942877#4 18503944#0 18503944#1 106608905#1 108265296#0 18502703#2 18502703#3 209183484 119440078#0 119440078#1 119440078#2 119440078#3 119440078#4 174044127#0 174044127#1 143995130 207908670#3 207908670#4 7917436 174044129#0 174044129#1 174044129#2 174044129#3 -7917435#5 -7917435#4 -7917435#3 -10361810#1"/>
    </vehicle>
    <vehicle id="59" type="hSlowCar" depart="0.00">
        <route edges="-18498615#1 18498615#1 147614652#0 147614652#1 106608905#0 106608905#1 106608905#2 18502697#0 18502697#1 18507815#0 18507815#1 18507815#2 18507815#3 157655114#0"/>
    </vehicle>
    <vehicle id="60" type="hSlowCar" depart="0.00">