<?xml version="1.0" encoding="UTF-8"?>

<!-- generated on Sat Aug 26 01:18:38 2017 by SUMO duarouter Version 0.21.0
<?xml version="1.0" encoding="UTF-8"?>

<configuration xmlns:xsi="http://www.w3.org/2001/XMLSchema-instance" xsi:noNamespaceSchemaLocation="http://sumo-sim.org/xsd/duarouterConfiguration.xsd">

    <input>
        <net-file value="erlangen.net.xml"/>
        <additional-files value="type.add.xml"/>
        <trip-files value="trips.trips.xml"/>
    </input>

    <output>
        <output-file value="erlangen.rou.xml"/>
    </output>

    <processing>
        <ignore-errors value="true"/>
    </processing>

    <time>
        <begin value="0"/>
        <end value="375.0"/>
    </time>

    <report>
        <no-step-log value="true"/>
    </report>

</configuration>
-->

<routes xmlns:xsi="http://www.w3.org/2001/XMLSchema-instance" xsi:noNamespaceSchemaLocation="http://sumo-sim.org/xsd/routes_file.xsd">
    <vType id="hSlowCar" length="5.00" minGap="2.50" maxSpeed="25.00" probability="0.05" color="blue">
        <carFollowing-Krauss accel="2.60" decel="4.50" sigma="0.50"/>
    </vType>
    <vehicle id="0" type="hSlowCar" depart="0.00">
        <route edges="7653583#0 7653583#1 -157655114#1 -157655114#0 -4324389#2 121700406 38771468#1 38771468#2 38771468#3 448960167#1 386959361#0 386959361#1 386959361#2 386959361#3 138233900 18502699#1 128942883 128942877#0 128942877#1 128942877#2 128942877#3 128942877#4 128942877#5 128942877#6"/>
    </vehicle>
    <vehicle id="1" type="hSlowCar" depart="0.00">
        <route edges="251495047#0 -30836054#0 128932869#0 128932869#1 219406890#0 219406890#1 126471497#0 126471497#1 126471497#2 126471497#3 126471497#4 126471497#5 7917431#0 7917431#1 7917431#2 7917431#3 128930534 128930536 -29205082#4 -29205082#3 -29205082#2 -29205082#1 -29205082#0 -207728321 -119438059#2 -119438059#1 -119438059#0 -33581450#2 -23892139 23892139"/>
    </vehicle>
    <vehicle id="2" type="hSlowCar" depart="0.00">
        <route edges="-18498055 -207728318#1 -207728318#0 -207728321 -119438059#2 -119438059#1 -119438059#0 -33581450#2 -33581450#1 -33581450#0 238770987#0 18503942 106608905#1 106608905#2 18502697#0 18502697#1 18507815#0 18507815#1 18507815#2 18507815#3 157655114#0"/>
    </vehicle>
    <vehicle id="3" type="hSlowCar" depart="0.00">
        <route edges="126471498#5 126471498#6 126471498#7 473799031 473799033 138233901 448960166 448960167#0 448960167#1 386959361#0 386959361#1 386959361#2 386959361#3 138233900 18502699#1 18502699#2 18502699#3 18502702#0 18502702#1 18502702#2 18502702#3 18502697#3 18502697#4 18502697#0 18502703#0 18502703#1 18502703#2 18502703#3 209183484 119440078#0 119440078#1 119440078#2 119440078#3 119440078#4 174044127#0 174044127#1 143995130 207908670#3 207908670#4 7917436 174044129#0 174044129#1 174044129#2 174044129#3 122320050 122317544 25809315#4 25809315#5 25809315#6 25809315#7 25809315#8 240789892 132081728#3 132081728#4"/>
    </vehicle>
    <vehicle id="4" type="hSlowCar" depart="0.00">
        <route edges="-207728319#9 -207728319#8 -207728319#7 -207728319#6 -207728319#5 -207728319#4 -130801488#10 -130801488#9 -130801488#8 -130801488#7 -130801488#6 -130801488#5 174044131#0 174044131#1 174044131#2"/>
    </vehicle>
    <vehicle id="6" type="hSlowCar" depart="0.00">
        <route edges="29205082#1 -29205082#1 -29205082#0 -207728321 -119438059#2 -119438059#1 -119438059#0 -33581450#2 -33581450#1 -33581450#0 238770987#0 238770987#1 238770987#2 -147614652#1 18503941#0"/>
    </vehicle>
    <vehicle id="7" type="hSlowCar" depart="0.00">
        <route edges="128925232 128925247 128925251 130801488#8 130801488#9 130801488#10 -207728319#3 -207728319#2 -207728319#1 -207728319#0 -385669582 -237920407#1 -237920407#0 -237920408#2 -237920408#1 -237920408#0 -207908670#5 -207908670#4 -207908670#3 -207908670#2 -207908670#1 -207908670#0 -209183483#6 -209183483#5 -209183483#4 -209183483#3 -209183483#2 -209183483#1 -209183483#0 -157655114#4 -157655114#3 -157655114#2 -157655114#1 -157655114#0 -4324389#2 -4324389#1 -8080895 126471498#6 126471498#7"/>
    </vehicle>
    <vehicle id="8" type="hSlowCar" depart="0.00">
        <route edges="23892140 33581450#2 119438059#0 119438059#1 119438059#2 207728321 29205082#0 29205082#1 29205082#2 29205082#3 29205082#4 174044127#0 174044127#1 143995130 207908670#3 207908670#4 7917436 174044129#0 174044129#1 174044129#2 174044129#3 122320050 122317544 409089012#0 409089012#1 409089012#2 174044131#0 174044131#1 174044131#2 174044131#3 174044131#4 -250777278#3 -250777278#2 -250777278#1 -250777278#0 250777280#3 250777280#4 -7395437#1 -7395437#0"/>
    </vehicle>
    <vehicle id="9" type="hSlowCar" depart="0.00">
        <route edges="448960167#1 386959361#0 386959361#1 386959361#2 386959361#3 138233900 18502699#1 18502699#2 18502699#3 18502702#0 18502702#1 18502702#2 18502702#3 18502697#3 18502697#4 18502697#0 18502703#0 18502703#1 18502703#2 18502703#3 209183484 119440078#0 119440078#1 119440078#2 119440078#3 119440078#4 174044127#0 174044127#1 143995130 207908670#3 207908670#4 7917436 174044129#0 174044129#1 174044129#2 174044129#3 122320050 122317544 409089012#0 409089012#1 409089012#2 174044131#0 174044131#1 174044131#2 174044131#3 174044131#4 250777278#4 250777278#5 250777278#6"/>
    </vehicle>
    <vehicle id="10" type="hSlowCar" depart="0.00">
        <route edges="-128754991#0 -119438058#4 -119438058#3 -119438058#2 -119438058#1 -119438058#0 -272522215 272522216#2 272522216#3 272522216#4 272522216#0 -250777278#6 -250777278#5 -250777278#4 -250777278#3 -250777278#2 -250777278#1 -250777278#0 250777280#3 250777280#4 250777280#0 250777277#0 250777277#1 128931501#0 128931500#0"/>
    </vehicle>
    <vehicle id="11" type="hSlowCar" depart="0.00">
        <route edges="-250286860 -12182447#3 -12182447#2 -12182447#1 -12182447#0 -237920408#1 -237920408#0 -207908670#5 -207908670#4 -207908670#3 -207908670#2 -207908670#1 -207908670#0 -209183483#6 -209183483#5 -209183483#4 -209183483#3 -209183483#2 -209183483#1 -209183483#0 -157655114#4 -157655114#3 -157655114#2 -157655114#1 -38771467"/>
    </vehicle>
    <vehicle id="12" type="hSlowCar" depart="0.00">
        <route edges="160153626#0 160153623 160153622#2 160153626#2 160153628 -160153620 174044127#1 143995130 -207908670#2 -207908670#1 128930533 -7917431#3 -7917431#2 -7917431#1 -7917431#0 126471497#6 126471497#7 126471497#8 126471497#9 126471497#10 126471497#11 126471497#12 126471497#13 126471497#14 126471497#15 473802585#0 473802585#1 473802585#2 473802585#3 473802585#4 7653583#0"/>
    </vehicle>
    <vehicle id="13" type="hSlowCar" depart="0.00">
        <route edges="7917438#2 128764682#1 128764684 128764683#0 128764683#1 128764683#2 128764680 128764685 7917439#1 7917439#2 7917439#3 7917439#4 126471497#3 126471497#4 126471497#5 126471497#6 126471497#7 126471497#8 126471497#9 126471497#10 126471497#11 126471497#12 126471497#13 126471497#14 126471497#15 207580076#0 207580076#1 132977803#0 132977803#1 132977804#3 132977805#2"/>
    </vehicle>
    <vehicle id="14" type="hSlowCar" depart="0.00">
        <route edges="250777278#2 250777278#3 250777278#4 4325634#4 130096030 130096034#0 130096034#1 130096034#2 130096034#3 130096034#4 -207728319#4 -207728319#3 -207728319#2 -207728319#1 12182441 265905832 -207728320 -207728318#3 -207728318#2 -207728318#1 -207728318#0 -207728321 -119438059#2 -119438059#1 -119438059#0 -33581450#2 -33581450#1 -33581450#0 128943073 128942887#0 121700407#1"/>
    </vehicle>
    <vehicle id="15" type="hSlowCar" depart="0.00">
        <route edges="-150882380 -238770987#1 -238770987#0 33581450#0 33581450#1 -23892139"/>
    </vehicle>
    <vehicle id="16" type="hSlowCar" depart="0.00">
        <route edges="23892138#0 30836983 -128942877#1 -128942877#0 18503839 18502699#3 18502702#0 18502702#1 18502702#2 18502702#3 18502697#3 18502697#4 18502697#0 18502703#0 18502703#1 18502703#2 18502703#3 33581450#0 33581450#1 33581450#2 119438059#0 -119438059#0"/>
    </vehicle>
    <vehicle id="17" type="hSlowCar" depart="0.00">
        <route edges="250286860 250286862#1 12182447#5 207728318#3 207728320 -265905832 -265905833#1 -265905833#0 -119438058#9 201363926#0 201363926#1"/>
    </vehicle>
    <vehicle id="18" type="hSlowCar" depart="0.00">
        <route edges="237920408#0 -237920408#0 -207908670#5 -207908670#4 -207908670#3 -207908670#2 -207908670#1 -207908670#0 -209183483#6 -209183483#5 -209183483#4 -209183483#3 -209183483#2 -209183483#1 -209183483#0 -157655114#4 -157655114#3 7653582#0 7653582#1 7653585#1 -207580076#2 -207580076#1"/>
    </vehicle>
    <vehicle id="19" type="hSlowCar" depart="0.00">
        <route edges="124327151#1 -124327151#1 -124327151#0 124327153 12182441 265905832 -207728320 -207728318#3 -207728318#2 -207728318#1 -207728318#0 -207728321 -119438059#2 -119438059#1 -119438059#0 -33581450#2 -33581450#1 -33581450#0 238770987#0 238770987#1 238770987#2 -147614652#1 18503941#0 30836943#2"/>
    </vehicle>
    <vehicle id="20" type="hSlowCar" depart="0.00">
        <route edges="128752309 128752310#0 128752310#1 128752310#2 128752310#3 128752310#4 130801488#3 130801488#4 130801488#5 130801488#6 130801488#7 130801488#8 130801488#9 130801488#10 -207728319#3 -207728319#2 -207728319#1 12182441 265905832 -207728320 -207728318#3 -207728318#2 -207728318#1 -207728318#0 -207728321 -119438059#2 -119438059#1 -119438059#0 -33581450#2 -33581450#1 -33581450#0 238770987#0 238770987#1 238770987#2 -147614652#1 18503941#0 -30836943#1"/>
    </vehicle>
    <vehicle id="21" type="hSlowCar" depart="0.00">
        <route edges="386959361#0 386959361#1 386959361#2 386959361#3 138233900 18502699#1 18502699#2 18502699#3 18502702#0 18502702#1 18502702#2 18502702#3 18502697#3 18502697#4 18502697#0 18502703#0 18502703#1 18502703#2 18502703#3 209183484 119440078#0 119440078#1 119440078#2 119440078#3 119440078#4 128930529 128930533 -7917431#3"/>
    </vehicle>
    <vehicle id="22" type="hSlowCar" depart="0.00">
        <route edges="7917439#0 7917439#1 7917439#2 7917439#3 7917439#4 126471497#3 8080873#0 8080872#1 134661171 385669584#1 126471497#0 7917438#0 7917438#1 7917438#2"/>
    </vehicle>
    <vehicle id="23" type="hSlowCar" depart="0.00">
        <route edges="29205082#1 -29205082#1 -29205082#0 -207728321 18498054"/>
    </vehicle>
    <vehicle id="24" type="hSlowCar" depart="0.00">
        <route edges="250777278#4 -250777278#4 174044130#0 174044130#1"/>
    </vehicle>
    <vehicle id="25" type="hSlowCar" depart="0.00">
        <route edges="128752307 130096034#1 130096034#2 130096034#3 130096034#4 -207728319#4 -130801488#10 -130801488#9 -130801488#8 -130801488#7 -130801488#6 -130801488#5 -130801488#4 -130801488#3 -130801488#2 373577568#0"/>
    </vehicle>
    <vehicle id="26" type="hSlowCar" depart="0.00">
        <route edges="128931504#3 128931504#4 130096034#2 130096034#3 130096034#4 -207728319#4 -207728319#3 -207728319#2 -207728319#1 -207728319#0 -385669582 -237920407#1 -237920407#0 -237920408#2 -237920408#1 -237920408#0 -207908670#5 -207908670#4 -207908670#3 -207908670#2 -207908670#1 128930533 -7917431#3 -7917431#2 -7917431#1 7917431#1"/>
    </vehicle>
    <vehicle id="27" type="hSlowCar" depart="0.00">
        <route edges="-18535920#3 -18535920#2 -18535920#1 -18535920#0 473799031 473799033 138233901 448960166 448960167#0 448960167#1 386959361#0 386959361#1 386959361#2 386959361#3 138233900 18502699#1 18502699#2 18502699#3 18502702#0 18502702#1 18502702#2 18502702#3 18502697#3 18502697#4 18502697#0 18502703#0 18502703#1 18502703#2 18502703#3 209183484 119440078#0 119440078#1 119440078#2 119440078#3 119440078#4 174044127#0 174044127#1 143995130 207908670#3 207908670#4 7917436 174044129#0 174044129#1 174044129#2 174044129#3 122320050 122317544 409089012#0 409089012#1 409089012#2 174044131#0 174044131#1 43941802"/>
    </vehicle>
    <vehicle id="28" type="hSlowCar" depart="0.00">
        <route edges="8080872#1 7653578#1 126471497#2 126471497#3 126471497#4 126471497#5 126471497#6 126471497#7 126471497#8 126471497#9 126471497#10 126471497#11 126471497#12 126471497#13 126471497#14 132977804#0 132977804#1"/>
    </vehicle>
    <vehicle id="29" type="hSlowCar" depart="0.00">
        <route edges="132081728#5 132081728#0 132081728#1 73012194#0 25809315#8 25809315#9 25809315#10 132967554 -130801488#1 219406890#0 219406890#1 126471497#0 126471497#1 126471497#2 126471497#3 126471497#4 126471497#5 126471497#6 126471497#7 126471497#8 126471497#9 126471497#10 126471497#11 126471497#12 126471497#13 126471497#14 126471497#15 473802585#0 473802585#1 473802585#2 473802585#3 473802585#4 473802585#5 473802585#6 473802584 126471498#0 126471498#1 126471498#2 126471498#3 126471498#4 126471498#5 126471498#6 126471498#7 473799031 473799033 473044947#0 473044947#1"/>
    </vehicle>
    <vehicle id="30" type="hSlowCar" depart="0.00">
        <route edges="209183483#5 209183483#6 128930536 -29205082#4 -29205082#3 160153626#0 160153623 160153622#2 160153626#2 160153626#3 160153624"/>
    </vehicle>
    <vehicle id="31" type="hSlowCar" depart="0.00">
        <route edges="18498615#0 18498615#1 -18507860"/>
    </vehicle>
    <vehicle id="32" type="hSlowCar" depart="0.00">
        <route edges="-250777278#4 250777278#4 4325634#4 130096030 130096034#0 130096034#1 130096034#2 130096034#3 130096034#4 -207728319#4 -207728319#3 -207728319#2 -207728319#1 -207728319#0 -385669582 -237920407#1 -237920407#0 -237920408#2 -237920408#1 -237920408#0 -207908670#5 -207908670#4 -207908670#3 -207908670#2 -207908670#1 -207908670#0 -209183483#6 -209183483#5 -209183483#4 -209183483#3 -209183483#2 -209183483#1 -209183483#0 -157655114#4 -157655114#3 7653582#0 148569944#0 148569944#1 148569944#2"/>
    </vehicle>
    <vehicle id="33" type="hSlowCar" depart="0.00">
        <route edges="-426269740 -219406890#1 -219406890#0 130801488#1 373577568#0 373577568#1 131817724#0 131817724#1 131817724#2 -250777278#1"/>
    </vehicle>
    <vehicle id="34" type="hSlowCar" depart="0.00">
        <route edges="128752307 130096034#1 130096034#2 130096034#3 130096034#4 -207728319#4 -207728319#3 -207728319#2 -207728319#1 -207728319#0 -385669582 -237920407#1 -237920407#0 -237920408#2 -237920408#1 -237920408#0 -207908670#5 -207908670#4 -207908670#3 -207908670#2 -207908670#1 -207908670#0 128930536 -29205082#4 -29205082#3 29205082#3"/>
    </vehicle>
    <vehicle id="35" type="hSlowCar" depart="0.00">
        <route edges="173767393 7917439#2 7917439#3 7917439#4 126471497#3 126471497#4 126471497#5 7917431#0 7917431#1 7917431#2 7917431#3 128930534 128930536 174044127#0 174044127#1 143995130 207908670#3 207908670#4 7917436 7917439#0 7917439#1 7917439#2 7917439#3 7917439#4 126471497#3 126471497#4 126471497#5 126471497#6 126471497#7 126471497#8 126471497#9 126471497#10 126471497#11 126471497#12 126471497#13 126471497#14 126471497#15 473802585#0 473802585#1 473802585#2 473802585#3 473802585#4 473802585#5 473802585#6 473802584 8080896 38771467 157655114#1 157655114#2 157655114#3 157655114#4 18501717 33581450#0 33581450#1 33581450#2 119438059#0 119438059#1 119438059#2 207728321 207728318#0 207728318#1 207728318#2 207728318#3 207728320 -265905832 -265905833#1 -265905833#0 -119438058#9 -119438058#8 119438058#8 119438058#9 265905833#0 265905833#1 265905832 -207728320 -207728318#3 -207728318#2 -207728318#1 -207728318#0 -207728321 -119438059#2 -119438059#1 -119438059#0 -33581450#2 -33581450#1 -33581450#0 33581450#0 -150882376 119440078#1 119440078#2 119440078#3 119440078#4 128930529 128930533 -7917431#3 -7917431#2 -249202938#2 249202938#2 -7917431#1 -7917431#0 -181422641#1 8080872#0 8080872#1 134661171 385669584#1 426269740 426269741#0 426269741#1 -426269741#1 -426269741#0 -426269740 126471497#0 126471497#1 126471497#2 126471497#3 126471497#4 126471497#5 126471497#6 126471497#7 126471497#8 126471497#9 126471497#10 126471497#11 126471497#12 126471497#13 126471497#14 126471497#15 473802585#0 473802585#1 473802585#2 473802585#3 473802585#4 473802585#5 473802585#6 473802584 126471498#0 126471498#1 126471498#2 126471498#3 126471498#4 126471498#5 126471498#6 126471498#7 473799031 473799033 473799032 473799031 473799033 4324389#0 4324389#1 4324389#2 157655114#0 157655114#1 157655114#2 157655114#3 157655114#4 18501717 209183484 119440078#0 119440078#1 119440078#2 119440078#3 119440078#4 174044127#0 174044127#1 143995130 207908670#3 207908670#4 7917436 174044129#0 174044129#1 174044129#2 174044129#3 122320050 122317544 25809315#4 25809315#5 25809315#6 25809315#7 25809315#8 240789892 132081728#3 449707978 -7917435#0 -426269741#1 -426269741#0 -426269740 126471497#0 126471497#1 126471497#2 126471497#3 126471497#4 126471497#5 126471497#6 126471497#7 126471497#8 159831778#3 159831778#0 126471497#7 126471497#8 126471497#9 126471497#10 126471497#11 126471497#12 126471497#13 126471497#14 126471497#15 207580076#0 207580076#1 207580076#2 108043727#0 108043727#1 108043727#2 209183483#0 209183483#1 209183483#2 209183483#3 209183483#4 209183483#5 209183483#6 128930536 -29205082#4 -29205082#3 -29205082#2 29205082#2 29205082#3 29205082#4 174044127#0 174044127#1 143995130 207908670#3 207908670#4 7917436 174044129#0 174044129#1 174044129#2 174044129#3 122320050 122317544 409089012#0 409089012#1 409089012#2 174044131#0 174044131#1 174044131#2 128931504#3 128931504#4 130096034#2 130096034#3 130096034#4 -207728319#4 -207728319#3 -207728319#2 -207728319#1 -207728319#0 -385669582 -237920407#1 -237920407#0 -237920408#2 -237920408#1 -237920408#0 -207908670#5 -207908670#4 -207908670#3 -207908670#2 -207908670#1 -207908670#0 -209183483#6 -209183483#5 -209183483#4 -209183483#3 7917430#0 7917430#1 473810915#0 473810915#1 473810916 473810917 126471497#12 126471497#13 126471497#14 126471497#15 207580076#0 207580076#1 207580076#2 108043727#0 108043727#1 108043727#2 18501717 238770987#0 238770987#1 238770987#2 -147614652#1 18503941#0 -30836943#1"/>
    </vehicle>
    <vehicle id="37" type="hSlowCar" depart="0.00">
        <route edges="207728319#3 -130801488#10 -130801488#9 -130801488#8 -130801488#7 -130801488#6 -130801488#5 174044131#0 174044131#1 174044131#2 174044131#3 174044131#4 174044130#0 174044130#1"/>
    </vehicle>
    <vehicle id="38" type="hSlowCar" depart="0.00">
        <route edges="-209183483#0 -157655114#4 -157655114#3 -157655114#2 -157655114#1 -157655114#0 -4324389#2 121700406 38771468#1 38771468#2 38771468#3 448960167#1 386959361#0 386959361#1 386959361#2 386959361#3 138233900 18502699#1 128942883 128942877#0 23892138#0 23892138#1 -18507830#1 18507830#1"/>
    </vehicle>
    <vehicle id="39" type="hSlowCar" depart="0.00">
        <route edges="-7345550 -250777278#1 -250777278#0 250777280#3 250777280#4 250777280#0 250777280#1 250777279 128932869#0 128932869#1 219406890#0 219406890#1 126471497#0 126471497#1 126471497#2 126471497#3 126471497#4 126471497#5 126471497#6 126471497#7 126471497#8 126471497#9 126471497#10 126471497#11 126471497#12 126471497#13 126471497#14 126471497#15 207580076#0 207580076#1 207580076#2 108043727#0 108043727#1 -148570066#2 -148570066#1 -148570066#0 108043727#1 108043727#2 18501717 238770987#0 -238770987#0 209183484 119440078#0 119440078#1 119440078#2 119440078#3 119440078#4 174044127#0 174044127#1 143995130 207908670#3 207908670#4 7917436 174044129#0 174044129#1 174044129#2 174044129#3 122320050 122317544 409089012#0 409089012#1 409089012#2 174044131#0 174044131#1 174044131#2 128931504#3 128931504#4 130096034#2 130096034#3 130096034#4 -207728319#4 -207728319#3 -207728319#2 -207728319#1 -207728319#0 -385669582 -237920407#1 -237920407#0 -237920408#2 -237920408#1 -237920408#0 -207908670#5 -207908670#4 -207908670#3 -207908670#2 -207908670#1 128930533 -7917431#3 7917431#3 128930534 128930536 174044127#0 174044127#1 143995130 207908670#3 207908670#4 7917436 174044129#0 174044129#1 174044129#2 174044129#3 122320050 122317544 409089012#0 409089012#1 409089012#2 130801488#5 130801488#6 130801488#7 130801488#8 130801488#9 130801488#10 -207728319#3 -207728319#2 -207728319#1 12182441 265905832 -207728320 -207728318#3 -207728318#2 -207728318#1 -207728318#0 -207728321 -119438059#2 -119438059#1 -119438059#0 -33581450#2 -33581450#1 -33581450#0 238770987#0 238770987#1 238770987#2 106608905#0 106608905#1 108265296#0 18502703#2 18502703#3 209183484 119440078#0 119440078#1 119440078#2 119440078#3 119440078#4 128930529 128930533 -7917431#3 -7917431#2 -7917431#1 -7917431#0 126471497#6 159831778#1 126471497#8 126471497#9 126471497#10 126471497#11 126471497#12 126471497#13 126471497#14 126471497#15 207580076#0 207580076#1 207580076#2 108043727#0 108043727#1 108043727#2 18501717 128943073 128942887#0 -121700407#0 18502703#3 209183484 119440078#0 119440078#1 119440078#2 119440078#3 119440078#4 174044127#0 174044127#1 143995130 207908670#3 207908670#4 7917436 174044129#0 174044129#1 174044129#2 174044129#3 122320050 122317544 25809315#4 25809315#5 25809315#6 25809315#7 25809315#8 25809315#9 25809315#10 132967554 -130801488#1 219406890#0 219406890#1 126471497#0 126471497#1 126471497#2 126471497#3 126471497#4 126471497#5 7917431#0 7917431#1 7917431#2 7917431#3 128930534 128930536 174044127#0 174044127#1 143995130 7917440 174044126#0 160011964 160011961 160011959 160011963 160011958#0 160011962 160011960 7917439#4 126471497#3 126471497#4 126471497#5 7917431#0 7917431#1 7917431#2 7917431#3 128930534 128930536 174044127#0 174044127#1 143995130 207908670#3 207908670#4 7917436 174044129#0 174044129#1 174044129#2 174044129#3 122320050 122317544 25809315#4 25809315#5 10361810#0 -124327151#1 122317544 409089012#0 409089012#1 409089012#2 174044131#0 174044131#1 174044131#2 128931504#3 128931504#4 130096034#2 130096034#3 130096034#4 -207728319#4 -207728319#3 -207728319#2 -207728319#1 12182441 265905832 -207728320 -207728318#3 -207728318#2 -207728318#1 -207728318#0 -207728321 -119438059#2 -119438059#1 -119438059#0 -33581450#2 -33581450#1 -33581450#0 238770987#0 238770987#1 238770987#2 -147614652#1 -147614652#0 -18498615#1 18498615#1 147614652#0 147614652#1 -238770987#2 -238770987#1 -238770987#0 209183484 119440078#0 119440078#1 119440078#2 119440078#3 119440078#4 174044127#0 174044127#1 143995130 207908670#3 207908670#4 7917436 174044129#0 174044129#1 174044129#2 174044129#3 122320050 122317544 409089012#0 409089012#1 409089012#2 -130801488#4 -130801488#3 -130801488#2 373577568#0 373577568#1 131817724#0 131817724#1 128931504#0 128931504#1 128752306 128752309 128752310#0 128752310#1 128752310#2 128752310#3 128752310#4 130801488#3 130801488#4 174044131#0 174044131#1 174044131#2 128931504#3 128931504#4 128931504#5 171797500 119438058#1 119438058#2 119438058#3 119438058#4 128754991#0 128754991#1 129220646#0 129220646#1 -128754991#1 -128754991#0 119438058#5 119438058#6 119438058#7 119438058#8 119438058#9 265905833#0 265905833#1 265905832 -207728320 -207728318#3 -207728318#2 -207728318#1 -207728318#0 -207728321 -119438059#2 -119438059#1 -119438059#0 -33581450#2 -33581450#1 -33581450#0 238770987#0 18503942 -18503942"/>
    </vehicle>
    <vehicle id="40" type="hSlowCar" depart="0.00">
        <route edges="132081728#5 132081728#0 132081728#1 73012194#0 25809315#8 25809315#9 25809315#10 132967554 -130801488#1 219406890#0 219406890#1 126471497#0 126471497#1 126471497#2 126471497#3 126471497#4 126471497#5 126471497#6 126471497#7 126471497#8 126471497#9 126471497#10 126471497#11 126471497#12 126471497#13 126471497#14 126471497#15 473802585#0 473802585#1 473802585#2 473802585#3 473802585#4 473802585#5 473802585#6 473802584 126471498#0 126471498#1 126471498#2 126471498#3 126471498#4 126471498#5 126471498#6 126471498#7 473799031 473799033 138233901 448960166 448960167#0 448960167#1 386959361#0 386959361#1 386959361#2 386959361#3 138233900 18502699#1 128942883 128942877#0 128942877#1 128942877#2 -18507827 -18507823"/>
    </vehicle>
    <vehicle id="41" type="hSlowCar" depart="0.00">
        <route edges="473319952#2 448960166 448960167#0 448960167#1 386959361#0 386959361#1 386959361#2 386959361#3 138233900 18502699#1 18502699#2 18502699#3 18502702#0 18502702#1 18502702#2 18502702#3 18502697#3 18502697#4 18502697#0 18502703#0 18502703#1 18502703#2 18502703#3 209183484 119440078#0 119440078#1 130629320#0 -130629323 130629325#3 130629320#2 130629321"/>
    </vehicle>
    <vehicle id="42" type="hSlowCar" depart="0.00">
        <route edges="-148569944#2 -148569944#1 -148569944#0 7653582#1 7653585#1 108043727#0 108043727#1 108043727#2 18501717 33581450#0 33581450#1 33581450#2 119438059#0 119438059#1 119438059#2 207728321 207728318#0 207728318#1 207728318#2 207728318#3 207728320 -265905832 -265905833#1 -265905833#0 -119438058#9 -119438058#8 -119438058#7 -119438058#6 -119438058#5"/>
    </vehicle>
    <vehicle id="43" type="hSlowCar" depart="0.00">
        <route edges="128931504#2 174044131#3 174044131#4 -250777278#3 -250777278#2 -250777278#1 -250777278#0 250777280#3 250777280#4 250777280#0 250777280#1 250777279 30836054#0 30836054#1 30836054#2 128931504#0"/>
    </vehicle>
    <vehicle id="44" type="hSlowCar" depart="0.00">
        <route edges="-201363886#2 -201363886#1 -201363886#0 119438058#8 119438058#9 265905833#0 265905833#1 265905832 -207728320 -207728318#3 -207728318#2 -207728318#1 -207728318#0 -207728321 -119438059#2 -119438059#1 -119438059#0 -33581450#2 -33581450#1 -33581450#0 238770987#0 238770987#1 238770987#2 -147614652#1 -147614652#0 -18498615#1 -18498615#0"/>
    </vehicle>
    <vehicle id="45" type="hSlowCar" depart="0.00">
        <route edges="-207728319#9 -207728319#8 -207728319#7 -207728319#6 -207728319#5 -207728319#4 -207728319#3 -207728319#2 -207728319#1 -207728319#0 -7917435#6 -7917435#5 128860141 128860140 128860144 426269742 164341713#2"/>
    </vehicle>
    <vehicle id="46" type="hSlowCar" depart="0.00">
        <route edges="251495047#1 250777279 128932869#0 128932869#1 219406890#0 219406890#1 126471497#0 126471497#1 126471497#2 126471497#3 126471497#4 126471497#5 7917431#0 7917431#1 7917431#2 7917431#3 128930534 -209183483#6 -209183483#5 -209183483#4 -209183483#3 -209183483#2 -209183483#1 -209183483#0"/>
    </vehicle>
    <vehicle id="47" type="hSlowCar" depart="0.00">
        <route edges="12182453 -119438058#6 -119438058#5 -119438058#4 -119438058#3 -119438058#2 -119438058#1 -119438058#0 -272522215 272522216#2 272522216#3 272522216#4 272522216#0 -250777278#6 207728319#9"/>
    </vehicle>
    <vehicle id="48" type="hSlowCar" depart="0.00">
        <route edges="7917435#5 -7917435#5 128860141 128860140 128860144 426269742 129715327 128764681 128764682#0 7917438#3 174044129#2 426269738 426269739 122097037#0 122097037#1 164342019#0"/>
    </vehicle>
    <vehicle id="50" type="hSlowCar" depart="0.00">
        <route edges="385669584#1 126471497#0 126471497#1 126471497#2 126471497#3 126471497#4 126471497#5 126471497#6 126471497#7 126471497#8 126471497#9 126471497#10 126471497#11 126471497#12 126471497#13 126471497#14 126471497#15 -187017421#3 -187017421#2 -187017421#1 244823983"/>
    </vehicle>
    <vehicle id="51" type="hSlowCar" depart="0.00">
        <route edges="-7653585#0 7653583#1 157655114#2 157655114#3 157655114#4 209183483#0 209183483#1 209183483#2 209183483#3 209183483#4 209183483#5 209183483#6 128930536 174044127#0 174044127#1 143995130 207908670#3 207908670#4 7917436 174044129#0 174044129#1 174044129#2 174044129#3 122320050 122317544 409089012#0 409089012#1 409089012#2 174044131#0 174044131#1 174044131#2 174044131#3 174044131#4 250777278#4 -250777278#4"/>
    </vehicle>
    <vehicle id="53" type="hSlowCar" depart="0.00">
        <route edges="7917439#0 7917439#1 7917439#2 7917439#3 7917439#4 126471497#3 126471497#4 126471497#5 7917431#0 7917431#1 7917431#2 7917431#3 128930534 128930536 -29205082#4 -29205082#3 -29205082#2 -29205082#1 -29205082#0 -207728321 -119438059#2 -119438059#1 -119438059#0 -33581450#2 -23892139 23892139"/>
    </vehicle>
    <vehicle id="54" type="hSlowCar" depart="0.00">